# Gud diagnostics
# ==================
#
 &diagnostics_list
#
  filename( 1) = 'biomass_c',
#fileformat(1) = 'MDS',
#  frequency(1) = 31104000.,
 frequency(1) = 2592000.,
  fields( 1,1) = 'TRAC01  ',
  fields( 2,1) = 'TRAC02  ',
  fields( 3,1) = 'TRAC03  ',
  fields( 4,1) = 'TRAC04  ',
  fields( 5,1) = 'TRAC05  ',
  fields( 6,1) = 'TRAC06  ',
  fields( 7,1) = 'TRAC07  ',
  fields( 8,1) = 'TRAC08  ',
  fields( 9,1) = 'TRAC09  ',
  fields(10,1) = 'TRAC10  ',
  fields(11,1) = 'TRAC11  ',
  fields(12,1) = 'TRAC12  ',
  fields(13,1) = 'TRAC13  ',
  fields(14,1) = 'TRAC14  ',
  fields(15,1) = 'TRAC15  ',
  fields(16,1) = 'TRAC16  ',
  fields(17,1) = 'TRAC17  ',
  fields(18,1) = 'TRAC18  ',
  fields(19,1) = 'TRAC19  ',
  fields(20,1) = 'TRAC20  ',
  fields(21,1) = 'TRAC21  ',
  fields(22,1) = 'TRAC22  ',
  fields(23,1) = 'TRAC23  ',
  fields(24,1) = 'TRAC24  ',
  fields(25,1) = 'TRAC25  ',
#
  filename( 2) = 'chl',
#fileformat(2) = 'MDS',
 frequency(2) = 2592000.,
#  frequency(2) = 31104000.,
  fields( 1,2) = 'TRAC26  ',
  fields( 2,2) = 'TRAC27  ',
  fields( 3,2) = 'TRAC28  ',

  filename(  3) = 'General_3D',
#fileformat(3) = 'MDS',
 frequency(3) = 2592000.,
#  frequency( 3) = 31104000.,
  fields(1, 3) = 'PP      ',
  fields(2, 3) = 'Nfix    ',
  fields(3, 3) = 'Denit   ',
  fields(4, 3) = 'pH      ',
  fields(5, 3) = 'pCO2    ',
  fields(6, 3) = 'PAR     ',
  fields(7, 3) = 'Chl     ',
  fields(8, 3) = 'plankC  ',
  fields(9, 3) = 'THETA   ',
  fields(10, 3) = 'KPPdiffS',

  filename( 4) = 'General_2D',
#fileformat(4) = 'MDS',
#  frequency(4) = 31104000.,
 frequency(4) = 2592000.,
  fields(1, 4) = 'surfPAR ',
  fields(2, 4) = 'DARice  ',
  fields(3, 4) = 'MXLDEPTH',
  fields(4, 4) = 'KPPhbl  ',


#
  filename( 5) = 'PP',
 frequency(5) = 2592000.,
#fileformat(5) = 'MDS',
#  frequency(5) = 31104000.,
  fields(  1,5) = 'PP0001  ',
  fields(  2,5) = 'PP0002  ',
  fields(  3,5) = 'PP0003  ',
#
  filename( 6) = 'GR',
#fileformat(6) = 'MDS',
 frequency(6) = 2592000.,
#  frequency(6) =  31104000.,
  fields(  1,6) = 'GR0001  ',
  fields(  2,6) = 'GR0002  ',
  fields(  3,6) = 'GR0003  ',
  fields(  4,6) = 'GR0004  ',
  fields(  5,6) = 'GR0005  ',

 filename( 7) = 'VL',
#fileformat(7) = 'MDS',
 frequency(7) = 2592000.,
# frequency(7) =  31104000.,
 fields(  1,7) = 'VL0001  ',
 fields(  2,7) = 'VL0002  ',
 fields(  3,7) = 'VL0003  ',
 fields(  4,7) = 'VL0004  ',
 fields(  5,7) = 'VL0005  ',

 filename( 8) = 'Mort',
#fileformat(8) = 'MDS',
 frequency(8) = 2592000.,
# frequency(7) =  31104000.,
 fields(  1,8) = 'Mort0001  ',
 fields(  2,8) = 'Mort0002  ',
 fields(  3,8) = 'Mort0003  ',
 fields(  4,8) = 'Mort0004  ',
 fields(  5,8) = 'Mort0005  ',
#
/ 

# Parameter for Diagnostics of per level statistics:
#-----------------
# for each output-stream:
#  stat_fname(n) : prefix of the output file name (only 8.c long) for
#outp.stream n
#  stat_freq(n):< 0 : write snap-shot output every |stat_freq| seconds
#               > 0 : write time-average output every stat_freq seconds
#  stat_phase(n)    : write at time = stat_phase + multiple of |stat_freq|
#  stat_region(:,n) : list of "regions" (default: 1 region only=global)
#  stat_fields(:,n) : list of diagnostics fields (8.c) (see
#"available_diagnostics.log"
#                 file for the list of all available diag. in this particular
#config)
#-----------------
 &DIAG_STATIS_PARMS
 diagst_mnc=.FALSE.,
     stat_freq(1:3)= 3*10800.,
    stat_phase(1:3)= 3*0.,
 stat_fields(1,1)= 'PP      '
 stat_fields(1,2)= 'Nfix    '
 stat_fields(1,3)= 'Denit   '
    stat_fname(1)= 'statsPP',
    stat_fname(2)= 'statsNfix',
    stat_fname(3)= 'statsDenit',
/
