 &PTRACERS_PARM01
 PTRACERS_numInUse= 28,
 PTRACERS_Iter0= 0,
#
 PTRACERS_advScheme(:)=  28*33,
 PTRACERS_diffKh(:)=  28*0.0,
 PTRACERS_diffKr(:)=  28*1D-05,
 PTRACERS_useGMRedi(:)=  28*.TRUE.,
 PTRACERS_useKPP(:)=  28*.TRUE.,
#
 PTRACERS_names(  1)= 'DIC',
 PTRACERS_names(  2)= 'NO3',
 PTRACERS_names(  3)= 'NO2',
 PTRACERS_names(  4)= 'NH4',
 PTRACERS_names(  5)= 'PO4',
 PTRACERS_names(  6)= 'FeT',
 PTRACERS_names(  7)= 'SiO2',
 PTRACERS_names(  8)= 'DOC',
 PTRACERS_names(  9)= 'DON',
 PTRACERS_names( 10)= 'DOP',
 PTRACERS_names( 11)= 'DOFe',
 PTRACERS_names( 12)= 'POC',
 PTRACERS_names( 13)= 'PON',
 PTRACERS_names( 14)= 'POP',
 PTRACERS_names( 15)= 'POFe',
 PTRACERS_names( 16)= 'POSi',
 PTRACERS_names( 17)= 'PIC',
 PTRACERS_names( 18)= 'ALK',
 PTRACERS_names( 19)= 'O2',
 PTRACERS_names( 20)= 'CDOM',
 PTRACERS_names( 21)= 'c01',
 PTRACERS_names( 22)= 'c02',
 PTRACERS_names( 23)= 'c03',
 PTRACERS_names( 24)= 'c04',
 PTRACERS_names( 25)= 'c05',
 PTRACERS_names( 26)= 'Chl01',
 PTRACERS_names( 27)= 'Chl02',
 PTRACERS_names( 28)= 'Chl03',
#
 PTRACERS_units(  1)= 'mmol C/m^3'
 PTRACERS_units(  2)= 'mmol N/m^3'
 PTRACERS_units(  3)= 'mmol N/m^3'
 PTRACERS_units(  4)= 'mmol N/m^3'
 PTRACERS_units(  5)= 'mmol P/m^3'
 PTRACERS_units(  6)= 'mmol Fe/m^3'
 PTRACERS_units(  7)= 'mmol Si/m^3'
 PTRACERS_units(  8)= 'mmol C/m^3'
 PTRACERS_units(  9)= 'mmol N/m^3'
 PTRACERS_units( 10)= 'mmol P/m^3'
 PTRACERS_units( 11)= 'mmol Fe/m^3'
 PTRACERS_units( 12)= 'mmol C/m^3'
 PTRACERS_units( 13)= 'mmol N/m^3'
 PTRACERS_units( 14)= 'mmol P/m^3'
 PTRACERS_units( 15)= 'mmol Fe/m^3'
 PTRACERS_units( 16)= 'mmol Si/m^3'
 PTRACERS_units( 17)= 'mmol C/m^3'
 PTRACERS_units( 18)= 'mmol eq/m^3'
 PTRACERS_units( 19)= 'mmol O/m^3'
 PTRACERS_units( 20)= 'mmol C/m^3'
 PTRACERS_units( 21)= 'mmol C/m^3'
 PTRACERS_units( 22)= 'mmol C/m^3'
 PTRACERS_units( 23)= 'mmol C/m^3'
 PTRACERS_units( 24)= 'mmol C/m^3'
 PTRACERS_units( 25)= 'mmol C/m^3'
 PTRACERS_units( 26)= 'mg Chl/m^3'
 PTRACERS_units( 27)= 'mg Chl/m^3'
 PTRACERS_units( 28)= 'mg Chl/m^3'
#
 PTRACERS_initialFile(  1)= '*Your_path_to_Input*Input/input_ecco/glodap_tco2_ann-3d.bin',
 PTRACERS_initialFile(  2)= '*Your_path_to_Input*Input/input_ecco/lev01_nitrate_ann-3d.bin',
 PTRACERS_initialFile(  3)= '*Your_path_to_Input*Input/DARWIN_ECCO_run33_4/ptr03_run33_4_28800.bin',
 PTRACERS_initialFile(  4)= '*Your_path_to_Input*Input/DARWIN_ECCO_run33_4/ptr04_run33_4_28800.bin',
 PTRACERS_initialFile(  5)= '*Your_path_to_Input*Input/input_ecco/lev01_phosphate_ann-3d.bin',
 PTRACERS_initialFile(  6)= '*Your_path_to_Input*Input/DARWIN_ECCO_run33_4/ptr06_run33_4_28800.bin',
 PTRACERS_initialFile(  7)= '*Your_path_to_Input*Input/input_ecco/lev01_silicate_ann-3d.bin ',
 PTRACERS_initialFile(  8)= '*Your_path_to_Input*Input/DARWIN_ECCO_run33_4/ptr08_run33_4_28800.bin',
 PTRACERS_initialFile(  9)= '*Your_path_to_Input*Input/DARWIN_ECCO_run33_4/ptr09_run33_4_28800.bin',
 PTRACERS_initialFile( 10)= '*Your_path_to_Input*Input/DARWIN_ECCO_run33_4/ptr10_run33_4_28800.bin',
 PTRACERS_initialFile( 11)= '*Your_path_to_Input*Input/DARWIN_ECCO_run33_4/ptr11_run33_4_28800.bin',
 PTRACERS_initialFile( 12)= '*Your_path_to_Input*Input/DARWIN_ECCO_run33_4/ptr12_run33_4_28800.bin',
 PTRACERS_initialFile( 13)= '*Your_path_to_Input*Input/DARWIN_ECCO_run33_4/ptr13_run33_4_28800.bin',
 PTRACERS_initialFile( 14)= '*Your_path_to_Input*Input/DARWIN_ECCO_run33_4/ptr14_run33_4_28800.bin',
 PTRACERS_initialFile( 15)= '*Your_path_to_Input*Input/DARWIN_ECCO_run33_4/ptr15_run33_4_28800.bin',
 PTRACERS_initialFile( 16)= '*Your_path_to_Input*Input/DARWIN_ECCO_run33_4/ptr16_run33_4_28800.bin',
 PTRACERS_initialFile( 17)= '*Your_path_to_Input*Input/DARWIN_ECCO_run33_4/ptr17_run33_4_28800.bin',
 PTRACERS_initialFile( 18)= '*Your_path_to_Input*Input/input_ecco/glodap_alk_ann-3d.bin',
 PTRACERS_initialFile( 19)= '*Your_path_to_Input*Input/input_ecco/lev01_oxygen_micromolar_ann-3d.bin',
 PTRACERS_initialFile( 20)= '*Your_path_to_Input*Input/DARWIN_ECCO_run33_4/ptr20_run33_4_28800.bin',
 PTRACERS_initialFile( 21)= '*Your_path_to_Input*Input/DARWIN_ECCO_run33_4/biomass_run33_4_28800.bin',
 PTRACERS_initialFile( 22)= '',
 PTRACERS_initialFile( 23)= '',
 PTRACERS_initialFile( 24)= '*Your_path_to_Input*Input/DARWIN_ECCO_run33_4/biomass_run33_4_28800.bin',
 PTRACERS_initialFile( 25)= '*Your_path_to_Input*Input/DARWIN_ECCO_run33_4/biomass100_run33_4_28800.bin',
 PTRACERS_initialFile(26:28)=3*' ',
 /
